**  Abaqus input file created by pyFormex 0.8.4-a4 (http://pyformex.org)
**
*HEADING
Model: SpaceTruss     Date: 2011-07-09 14:10:10.183327      Created by pyFormex
Script: /home/bene/prj/pyformex/pyformex/examples/SpaceTrussRoof_abq.py 


*NODE, NSET=Nall
1,  -9.000000e+02,  -9.000000e+02,  -9.000000e+02
2,   9.000000e+02,  -9.000000e+02,  -9.000000e+02
3,   2.700000e+03,  -9.000000e+02,  -9.000000e+02
4,   4.500000e+03,  -9.000000e+02,  -9.000000e+02
5,   6.300000e+03,  -9.000000e+02,  -9.000000e+02
6,   0.000000e+00,   0.000000e+00,   0.000000e+00
7,   1.800000e+03,   0.000000e+00,   0.000000e+00
8,   3.600000e+03,   0.000000e+00,   0.000000e+00
9,   5.400000e+03,   0.000000e+00,   0.000000e+00
10,  -9.000000e+02,   9.000000e+02,  -9.000000e+02
11,   9.000000e+02,   9.000000e+02,  -9.000000e+02
12,   2.700000e+03,   9.000000e+02,  -9.000000e+02
13,   4.500000e+03,   9.000000e+02,  -9.000000e+02
14,   6.300000e+03,   9.000000e+02,  -9.000000e+02
15,  -9.000000e+02,   2.700000e+03,  -9.000000e+02
16,   0.000000e+00,   1.800000e+03,   0.000000e+00
17,   9.000000e+02,   2.700000e+03,  -9.000000e+02
18,   2.700000e+03,   2.700000e+03,  -9.000000e+02
19,   1.800000e+03,   1.800000e+03,   0.000000e+00
20,   3.600000e+03,   1.800000e+03,   0.000000e+00
** ... 30 like lines cut
*NSET,NSET=Nset_0
11,
12,
13,
17,
18,
19,
20,
21,
25,
26,
29,
30,
31,
34,
35,
39,
40,
43,
*NSET,NSET=Nset_1
6,
7,
8,
9,
16,
23,
24,
27,
33,
36,
38,
41,
42,
45,
*NSET,NSET=Nset_2
1,
2,
3,
4,
5,
10,
14,
15,
22,
28,
32,
37,
44,
46,
47,
48,
49,
50,
*ELEMENT, TYPE=T3D2, ELSET=Eset_0_grp_0
1, 6, 7
2, 7, 8
3, 8, 9
4, 16, 19
5, 19, 20
6, 20, 23
7, 24, 25
8, 25, 26
9, 26, 27
10, 33, 34
11, 34, 35
12, 35, 36
13, 38, 41
14, 41, 42
15, 42, 45
16, 6, 16
17, 7, 19
18, 8, 20
19, 9, 23
20, 16, 24
** ... 11 like lines cut
*ELSET,ELSET=Eall
Eset_0_grp_0
*ELSET,ELSET=Eset_0
Eset_0_grp_0
*ELEMENT, TYPE=T3D2, ELSET=Eset_1_grp_0
32, 1, 2
33, 2, 3
34, 3, 4
35, 4, 5
36, 10, 11
37, 11, 12
38, 12, 13
39, 13, 14
40, 15, 17
41, 17, 18
42, 18, 21
43, 21, 22
44, 28, 29
45, 29, 30
46, 30, 31
47, 31, 32
48, 37, 39
49, 39, 40
50, 40, 43
51, 43, 44
** ... 29 like lines cut
*ELSET,ELSET=Eall
Eset_1_grp_0
*ELSET,ELSET=Eset_1
Eset_1_grp_0
*ELEMENT, TYPE=T3D2, ELSET=Eset_2_grp_0
81, 6, 1
82, 6, 2
83, 6, 10
84, 6, 11
85, 7, 2
86, 7, 3
87, 7, 11
88, 7, 12
89, 8, 3
90, 8, 4
91, 8, 12
92, 8, 13
93, 9, 4
94, 9, 5
95, 9, 13
96, 9, 14
97, 16, 10
98, 16, 11
99, 16, 15
100, 16, 17
** ... 60 like lines cut
*ELSET,ELSET=Eall
Eset_2_grp_0
*ELSET,ELSET=Eset_2
Eset_2_grp_0
*MATERIAL, NAME=S500
*ELASTIC
210000.0,0.3
*DENSITY
7.85e-06
*SOLID SECTION, ELSET=Eset_0, MATERIAL=S500
314.159265359
*SOLID SECTION, ELSET=Eset_1, MATERIAL=S500
314.159265359
*SOLID SECTION, ELSET=Eset_2, MATERIAL=S500
314.159265359
*BOUNDARY
Nset_2, 1
Nset_2, 2
Nset_2, 3
