 ______________________
< Welcome to FluentXML >
 ----------------------
     \
      \
          oO)-.                       .-(Oo
         /__  _\                     /_  __\
         \  \(  |     ()~()         |  )/  /
          \__|\ |    (-___-)        | /|__/
          '  '--'    ==`-'==        '--'  '

Introduction
------------

FluentXML is an XML library released under GNU GPLv3.


Contact
-------

Website: http://fluentxml.last-exile.org/
Wiki: http://trac.last-exile.org/fluentxml/
Bug tracker: http://trac.last-exile.org/fluentxml/
Jabber room: last-exile@muc.last-exile.org
